34Bus/Test runs/20_Linear Loads/ieee34-1_Curr_Elem.Txt

CIRCUIT ELEMENT CURRENTS

(Currents into element from indicated bus)

Power Delivery Elements

  Bus     Phase    Magnitude, A     Angle      (Real)   +j  (Imag)

ELEMENT = "Vsource.SOURCE"
SOURCEBUS     1           17.364 /_ -162.7 =    -16.579 +j   -5.1631
SOURCEBUS     2           15.476 /_   83.6 =     1.7234 +j    15.379
SOURCEBUS     3           18.029 /_  -34.5 =     14.855 +j   -10.216
------------
SOURCEBUS     0           17.364 /_   17.3 =     16.579 +j    5.1631
SOURCEBUS     0           15.476 /_  -96.4 =    -1.7234 +j   -15.379
SOURCEBUS     0           18.029 /_  145.5 =    -14.855 +j    10.216

ELEMENT = "Transformer.SUBXF"
SOURCEBUS     1           17.364 /_   17.3 =     16.579 +j    5.1631
SOURCEBUS     2           15.476 /_  -96.4 =    -1.7234 +j   -15.379
SOURCEBUS     3           18.029 /_  145.5 =    -14.855 +j    10.216
SOURCEBUS     0                0 /_    0.0 =          0 +j         0
------------
800           1           53.104 /_  167.5 =    -51.848 +j     11.48
800           2           45.645 /_   52.6 =     27.723 +j    36.262
800           3           42.293 /_  -62.6 =     19.452 +j   -37.554
800           0           11.209 /_  -65.4 =     4.6733 +j   -10.188

ELEMENT = "Line.L1"
800           1           53.104 /_  -12.5 =     51.848 +j    -11.48
800           2           45.645 /_ -127.4 =    -27.723 +j   -36.262
800           3           42.293 /_  117.4 =    -19.452 +j    37.554
------------
802           1           53.118 /_  167.5 =    -51.852 +j    11.528
802           2           45.645 /_   52.5 =     27.759 +j    36.234
802           3           42.297 /_  -62.7 =     19.417 +j   -37.577

ELEMENT = "Line.L2"
802           1           53.118 /_  -12.5 =     51.852 +j   -11.528
802           2           44.596 /_ -127.0 =     -26.83 +j   -35.622
802           3           41.449 /_  117.9 =    -19.405 +j    36.626
------------
806           1           53.127 /_  167.4 =    -51.854 +j    11.561
806           2           44.596 /_   53.0 =     26.855 +j    35.603
806           3           41.452 /_  -62.1 =     19.382 +j   -36.642

ELEMENT = "Line.L3"
806           1           53.127 /_  -12.6 =     51.854 +j   -11.561
806           2           43.548 /_ -126.5 =    -25.924 +j   -34.992
806           3           40.608 /_  118.5 =    -19.371 +j     35.69
------------
808           1           53.297 /_  166.8 =    -51.892 +j    12.158
808           2            43.54 /_   52.7 =     26.372 +j    34.645
808           3            40.65 /_  -62.2 =     18.934 +j   -35.971

ELEMENT = "Line.L4"
808           2          0.59752 /_ -142.3 =   -0.47301 +j  -0.36509
------------
810           2          0.62583 /_   31.8 =    0.53193 +j   0.32972

ELEMENT = "Line.L5"
808           1           53.297 /_  -13.2 =     51.892 +j   -12.158
808           2           42.381 /_ -126.8 =    -25.367 +j    -33.95
808           3            40.65 /_  117.8 =    -18.934 +j    35.971
------------
812           1           53.488 /_  166.1 =    -51.926 +j    12.832
812           2           42.367 /_   52.4 =     25.873 +j    33.549
812           3           40.697 /_  -63.1 =     18.433 +j   -36.283

ELEMENT = "Line.L6"
812           1           53.488 /_  -13.9 =     51.926 +j   -12.832
812           2           42.367 /_ -127.6 =    -25.873 +j   -33.549
812           3           40.697 /_  116.9 =    -18.433 +j    36.283
------------
814           1           53.634 /_  165.6 =    -51.945 +j    13.351
814           2           42.357 /_   51.7 =     26.262 +j    33.233
814           3           40.733 /_  -63.7 =      18.04 +j    -36.52

ELEMENT = "Line.L7"
814R          1           49.318 /_  -14.4 =     47.766 +j   -12.275
814R          2           41.073 /_ -128.3 =    -25.465 +j   -32.227
814R          3            39.26 /_  116.3 =     -17.39 +j    35.199
------------
850           1           49.318 /_  165.6 =    -47.766 +j    12.275
850           2           41.073 /_   51.7 =     25.465 +j    32.226
850           3            39.26 /_  -63.7 =     17.389 +j   -35.199

ELEMENT = "Line.L8"
816           1           12.935 /_  -26.8 =     11.546 +j   -5.8311
------------
818           1           12.943 /_  153.1 =    -11.545 +j    5.8512

ELEMENT = "Line.L9"
816           1            36.79 /_  -10.1 =      36.22 +j   -6.4499
816           2           40.968 /_ -128.4 =    -25.424 +j   -32.125
816           3           39.192 /_  116.4 =     -17.43 +j    35.103
------------
824           1           36.826 /_  169.6 =    -36.225 +j    6.6296
824           2           40.964 /_   51.4 =     25.554 +j    32.016
824           3           39.204 /_  -63.8 =     17.296 +j   -35.183

ELEMENT = "Line.L10"
818           1           11.589 /_  -26.6 =     10.359 +j   -5.1945
------------
820           1            11.83 /_  150.9 =    -10.335 +j    5.7553

ELEMENT = "Line.L11"
820           1           5.2258 /_  -28.3 =     4.5991 +j   -2.4814
------------
822           1           5.2967 /_  150.1 =    -4.5922 +j    2.6393

ELEMENT = "Line.L12"
824           2           1.5399 /_ -148.4 =     -1.312 +j  -0.80624
------------
826           2           1.5554 /_   30.4 =     1.3416 +j   0.78696

ELEMENT = "Line.L13"
824           1           36.826 /_  -10.4 =     36.225 +j   -6.6296
824           2           37.973 /_ -127.0 =    -22.856 +j   -30.325
824           3           38.997 /_  116.4 =    -17.338 +j    34.931
------------
828           1           36.829 /_  169.6 =    -36.225 +j    6.6444
828           2           37.972 /_   53.0 =     22.866 +j    30.316
828           3           38.998 /_  -63.6 =     17.327 +j   -34.938

ELEMENT = "Line.L14"
828           1           36.578 /_  -10.3 =      35.99 +j   -6.5311
828           2           37.972 /_ -127.0 =    -22.866 +j   -30.316
828           3            38.86 /_  116.5 =    -17.325 +j    34.784
------------
830           1            36.65 /_  169.2 =    -35.997 +j     6.886
830           2           37.955 /_   52.5 =     23.121 +j      30.1
830           3           38.882 /_  -64.0 =      17.06 +j    -34.94

ELEMENT = "Line.L15"
830           1           35.183 /_   -9.6 =     34.686 +j   -5.8925
830           2           37.239 /_ -127.1 =    -22.451 +j   -29.711
830           3           37.569 /_  116.3 =    -16.658 +j    33.674
------------
854           1           35.184 /_  170.3 =    -34.686 +j    5.9014
854           2           37.239 /_   52.9 =     22.457 +j    29.705
854           3           37.569 /_  -63.7 =     16.651 +j   -33.678

ELEMENT = "Line.L16"
832           1           21.147 /_    0.5 =     21.146 +j   0.16759
832           2           23.234 /_ -116.9 =    -10.505 +j   -20.723
832           3           24.215 /_  128.0 =    -14.902 +j    19.086
------------
858           1           21.147 /_ -179.8 =    -21.147 +j -0.079036
858           2           23.213 /_   62.9 =     10.568 +j    20.668
858           3           24.203 /_  -52.2 =     14.836 +j   -19.123

ELEMENT = "Line.L17"
834           1           8.5475 /_  -40.5 =     6.5031 +j    -5.547
834           2           8.4048 /_ -156.2 =    -7.6884 +j   -3.3955
834           3           7.9457 /_   94.3 =   -0.59709 +j    7.9232
------------
860           1           8.5712 /_  139.4 =    -6.5032 +j    5.5834
860           2           8.4192 /_   23.6 =     7.7141 +j    3.3728
860           3           7.9588 /_  -85.9 =    0.56973 +j   -7.9384

ELEMENT = "Line.L18"
834           1           14.897 /_   34.2 =     12.327 +j    8.3639
834           2           16.346 /_  -96.3 =    -1.7813 +j   -16.248
834           3            15.18 /_  150.5 =    -13.211 +j    7.4778
------------
842           1           14.894 /_ -145.9 =    -12.327 +j   -8.3588
842           2           16.343 /_   83.7 =     1.7849 +j    16.245
842           3           15.178 /_  -29.5 =     13.207 +j     -7.48

ELEMENT = "Line.L19"
836           1           1.1574 /_  -27.6 =     1.0257 +j  -0.53614
836           2           1.5837 /_ -154.7 =    -1.4316 +j  -0.67716
836           3            1.291 /_   71.3 =     0.4129 +j    1.2232
------------
840           1           1.1647 /_  151.7 =    -1.0258 +j   0.55161
840           2           1.5895 /_   24.8 =     1.4426 +j   0.66753
840           3           1.3009 /_ -109.0 =   -0.42455 +j   -1.2297

ELEMENT = "Line.L20"
836           1        0.0050382 /_   90.2 =  -2.0272E-005 +j 0.0050382
836           2           2.0703 /_ -149.5 =    -1.7843 +j   -1.0501
836           3        0.0043396 /_ -150.9 =  -0.0037919 +j -0.0021104
------------
862           1      5.1449E-012 /_   45.0 =  3.638E-012 +j 3.638E-012
862           2           2.0718 /_   30.4 =     1.7878 +j    1.0469
862           3       7.276E-012 /_  180.0 =  -7.276E-012 +j         0

ELEMENT = "Line.L21"
842           1            14.75 /_   35.5 =     12.012 +j      8.56
842           2           16.343 /_  -96.3 =    -1.7849 +j   -16.245
842           3           15.178 /_  150.5 =    -13.207 +j      7.48
------------
844           1           14.736 /_ -144.6 =    -12.012 +j   -8.5357
844           2            16.33 /_   83.7 =      1.802 +j     16.23
844           3           15.167 /_  -29.6 =     13.189 +j   -7.4901

ELEMENT = "Line.L22"
844           1           9.8882 /_   78.7 =     1.9297 +j     9.698
844           2           9.3319 /_  -58.6 =     4.8639 +j   -7.9641
844           3           9.5845 /_ -166.6 =    -9.3233 +j    -2.222
------------
846           1           9.8239 /_ -101.3 =    -1.9299 +j   -9.6325
846           2            9.273 /_  121.3 =    -4.8177 +j    7.9233
846           3           9.5301 /_   13.3 =      9.274 +j    2.1946

ELEMENT = "Line.L23"
846           1           9.8239 /_   78.7 =     1.9299 +j    9.6325
846           2            9.535 /_  -47.4 =     6.4493 +j    -7.023
846           3           9.7939 /_ -162.0 =    -9.3171 +j   -3.0185
------------
848           1           9.8146 /_ -101.3 =    -1.9299 +j    -9.623
848           2           9.5261 /_  132.6 =    -6.4426 +j    7.0171
848           3           9.7858 /_   17.9 =     9.3099 +j    3.0145

ELEMENT = "Line.L24"
850           1           49.318 /_  -14.4 =     47.766 +j   -12.275
850           2           41.073 /_ -128.3 =    -25.465 +j   -32.226
850           3            39.26 /_  116.3 =    -17.389 +j    35.199
------------
816           1            49.32 /_  165.6 =    -47.766 +j    12.281
816           2           41.073 /_   51.7 =     25.469 +j    32.223
816           3           39.261 /_  -63.7 =     17.385 +j   -35.202

ELEMENT = "Line.L25"
852R          1           32.461 /_  -10.6 =     31.902 +j   -5.9985
852R          2           34.161 /_ -128.2 =    -21.136 +j   -26.838
852R          3            34.78 /_  115.5 =    -14.968 +j    31.394
------------
832           1           32.461 /_  169.4 =    -31.902 +j    5.9987
832           2           34.161 /_   51.8 =     21.136 +j    26.838
832           3            34.78 /_  -64.5 =     14.968 +j   -31.394

ELEMENT = "Transformer.XFM1"
832           1           12.306 /_  -29.8 =     10.673 +j   -6.1249
832           2           12.237 /_ -150.1 =    -10.607 +j    -6.102
832           3           12.227 /_   90.3 =  -0.066556 +j    12.227
832           0       0.00035056 /_   38.6 =  0.00027407 +j 0.00021858
------------
888           1           73.656 /_  150.2 =    -63.884 +j    36.661
888           2           73.244 /_   29.9 =     63.488 +j    36.524
888           3           73.184 /_  -89.7 =    0.39844 +j   -73.183
888           0        0.0020983 /_ -141.4 =  -0.0016405 +j -0.0013083

ELEMENT = "Line.L26"
854           2          0.24187 /_  -68.8 =   0.087448 +j  -0.22551
------------
856           2          0.15617 /_   29.9 =    0.13538 +j  0.077848

ELEMENT = "Line.L27"
854           1           35.184 /_   -9.7 =     34.686 +j   -5.9014
854           2           36.968 /_ -127.3 =    -22.409 +j   -29.402
854           3           37.569 /_  116.3 =    -16.651 +j    33.678
------------
852           1           35.302 /_  169.3 =    -34.693 +j    6.5249
852           2           36.937 /_   51.8 =     22.854 +j    29.018
852           3           37.605 /_  -64.5 =     16.183 +j   -33.945

ELEMENT = "Line.L28"
858           1         0.068533 /_  -17.7 =   0.065294 +j  -0.02082
------------
864           1         0.075749 /_  147.9 =  -0.064136 +j  0.040304

ELEMENT = "Line.L29"
858           1           20.704 /_    1.2 =       20.7 +j   0.43401
858           2           22.822 /_ -116.8 =    -10.275 +j   -20.378
858           3           23.751 /_  128.8 =    -14.878 +j    18.514
------------
834           1           20.703 /_ -179.1 =      -20.7 +j  -0.32891
834           2           22.797 /_   63.0 =     10.349 +j    20.313
834           3           23.736 /_  -51.4 =     14.799 +j   -18.558

ELEMENT = "Line.L30"
860           1           2.8292 /_  -27.4 =     2.5128 +j      -1.3
860           2           5.1791 /_ -153.0 =    -4.6135 +j   -2.3534
860           3           2.6333 /_   83.1 =    0.31709 +j    2.6141
------------
836           1           2.8519 /_  151.8 =     -2.513 +j    1.3483
836           2           5.1959 /_   26.6 =     4.6475 +j    2.3233
836           3           2.6579 /_  -97.6 =   -0.35338 +j   -2.6343

ELEMENT = "Line.L31"
862           2           1.0236 /_ -148.1 =   -0.86932 +j  -0.54049
------------
838           2            1.049 /_   28.9 =    0.91867 +j   0.50649

ELEMENT = "Line.L32"
888           1           73.656 /_  -29.8 =     63.884 +j   -36.661
888           2           73.244 /_ -150.1 =    -63.488 +j   -36.524
888           3           73.184 /_   90.3 =   -0.39844 +j    73.183
------------
890           1           73.671 /_  150.1 =    -63.884 +j    36.692
890           2           73.252 /_   29.9 =     63.509 +j    36.504
890           3           73.196 /_  -89.7 =    0.37497 +j   -73.195

ELEMENT = "Capacitor.C844"
844           1           7.2649 /_   86.5 =    0.44339 +j    7.2514
844           2           7.2236 /_  -34.6 =     5.9466 +j   -4.1011
844           3           7.2266 /_ -154.1 =    -6.5027 +j   -3.1526
------------
844           0           7.2649 /_  -93.5 =   -0.44339 +j   -7.2514
844           0           7.2236 /_  145.4 =    -5.9466 +j    4.1011
844           0           7.2266 /_   25.9 =     6.5027 +j    3.1526

ELEMENT = "Capacitor.C848"
848           1           10.901 /_   86.5 =     0.6748 +j     10.88
848           2           10.835 /_  -34.6 =     8.9143 +j   -6.1597
848           3           10.843 /_ -154.2 =    -9.7618 +j   -4.7207
------------
848           0           10.901 /_  -93.5 =    -0.6748 +j    -10.88
848           0           10.835 /_  145.4 =    -8.9143 +j    6.1597
848           0           10.843 /_   25.8 =     9.7618 +j    4.7207

ELEMENT = "Transformer.REG1A"
814           1           53.634 /_  -14.4 =     51.945 +j   -13.351
814           0           53.634 /_  165.6 =    -51.945 +j     13.35
------------
814R          1           49.318 /_  165.6 =    -47.766 +j    12.275
814R          0           49.318 /_  -14.4 =     47.766 +j   -12.276

ELEMENT = "Transformer.REG1B"
814           2           42.357 /_ -128.3 =    -26.262 +j   -33.233
814           0           42.357 /_   51.7 =     26.261 +j    33.233
------------
814R          2           41.073 /_   51.7 =     25.465 +j    32.227
814R          0           41.073 /_ -128.3 =    -25.465 +j   -32.226

ELEMENT = "Transformer.REG1C"
814           3           40.733 /_  116.3 =     -18.04 +j     36.52
814           0           40.733 /_  -63.7 =     18.041 +j   -36.519
------------
814R          3            39.26 /_  -63.7 =      17.39 +j   -35.199
814R          0            39.26 /_  116.3 =    -17.389 +j    35.199

ELEMENT = "Transformer.REG2A"
852           1           35.302 /_  -10.7 =     34.693 +j   -6.5249
852           0           35.302 /_  169.3 =    -34.694 +j    6.5242
------------
852R          1           32.461 /_  169.4 =    -31.902 +j    5.9985
852R          0           32.461 /_  -10.7 =     31.902 +j   -5.9993

ELEMENT = "Transformer.REG2B"
852           2           36.937 /_ -128.2 =    -22.854 +j   -29.018
852           0           36.937 /_   51.8 =     22.854 +j    29.018
------------
852R          2           34.161 /_   51.8 =     21.136 +j    26.838
852R          0           34.161 /_ -128.2 =    -21.136 +j   -26.838

ELEMENT = "Transformer.REG2C"
852           3           37.605 /_  115.5 =    -16.183 +j    33.945
852           0           37.605 /_  -64.5 =     16.184 +j   -33.945
------------
852R          3            34.78 /_  -64.5 =     14.968 +j   -31.394
852R          0            34.78 /_  115.5 =    -14.968 +j    31.394

= = = = = = = = = = = = = = = = = = =  = = = = = = = = = = =  = =

Power Conversion Elements

  Bus     Phase    Magnitude, A     Angle      (Real)   +j  (Imag)

ELEMENT = "Load.S860"
860           1            1.768 /_  -44.6 =     1.2596 +j   -1.2406
860           2           1.7693 /_ -165.3 =    -1.7118 +j  -0.44761
860           3           1.7692 /_   75.1 =    0.45521 +j    1.7097
860           0         0.021715 /_  -98.0 =  -0.0030369 +j -0.021502

ELEMENT = "Load.S840"
840           1          0.82801 /_  -41.3 =     0.6217 +j  -0.54688
840           2          0.82327 /_ -162.4 =    -0.7849 +j   -0.2484
840           3          0.82375 /_   78.0 =    0.17098 +j   0.80581
840           0         0.013091 /_ -126.5 =  -0.0077836 +j -0.010526

ELEMENT = "Load.S844"
844           1           12.425 /_  -41.4 =     9.3238 +j   -8.2125
844           2           12.354 /_ -162.5 =     -11.78 +j   -3.7218
844           3           12.359 /_   78.0 =     2.5718 +j    12.089
844           0          0.19288 /_ -126.7 =   -0.11524 +j  -0.15467

ELEMENT = "Load.S848"
848           1           1.7761 /_  -45.0 =     1.2551 +j   -1.2567
848           2           1.7652 /_ -165.2 =     -1.707 +j  -0.44953
848           3            1.765 /_   75.2 =    0.45185 +j    1.7062

ELEMENT = "Load.S830A"
830           1          0.44924 /_    0.3 =    0.44923 +j 0.0019709
830           2          0.44924 /_ -179.7 =   -0.44923 +j -0.0019709

ELEMENT = "Load.S830B"
830           2          0.44606 /_ -119.8 =   -0.22149 +j  -0.38718
830           3          0.44606 /_   60.2 =    0.22149 +j   0.38718

ELEMENT = "Load.S830C"
830           3           1.0777 /_  125.4 =   -0.62362 +j   0.87895
830           1           1.0777 /_  -54.6 =    0.62362 +j  -0.87895

ELEMENT = "Load.S890"
890           1           73.671 /_  -29.9 =     63.884 +j   -36.692
890           2           73.252 /_ -150.1 =    -63.509 +j   -36.504
890           3           73.196 /_   90.3 =   -0.37497 +j    73.195

ELEMENT = "Load.D858_864SB"
858           1         0.081455 /_  -30.0 =   0.070566 +j -0.040686
858           0         0.081455 /_  150.0 =  -0.070566 +j  0.040686

ELEMENT = "Load.D858_864RB"
864           1         0.075749 /_  -32.1 =   0.064136 +j -0.040304
864           0         0.075749 /_  147.9 =  -0.064136 +j  0.040304

ELEMENT = "Load.D858_834SA"
858           1         0.094291 /_   -0.6 =   0.094286 +j -0.00095882
858           2         0.094291 /_  179.4 =  -0.094286 +j 0.00095882

ELEMENT = "Load.D858_834RA"
834           1         0.087463 /_   -2.9 =   0.087355 +j -0.0043567
834           2         0.087463 /_  177.1 =  -0.087355 +j 0.0043567

ELEMENT = "Load.D842_844SA"
842           1          0.37406 /_  -32.5 =    0.31537 +j  -0.20115
842           0          0.37406 /_  147.5 =   -0.31537 +j   0.20115

ELEMENT = "Load.D842_844RA"
844           1          0.37398 /_  -32.6 =    0.31523 +j  -0.20124
844           0          0.37398 /_  147.4 =   -0.31523 +j   0.20124

ELEMENT = "Load.D844_846SB"
844           2          0.94282 /_ -152.0 =   -0.83215 +j  -0.44321
844           0          0.94282 /_   28.0 =    0.83215 +j   0.44321

ELEMENT = "Load.D844_846RB"
846           2          0.94284 /_ -152.0 =   -0.83251 +j  -0.44257
846           0          0.94284 /_   28.0 =    0.83251 +j   0.44257

ELEMENT = "Load.D844_846SC"
844           3          0.77864 /_   85.2 =   0.065556 +j   0.77588
844           0          0.77864 /_  -94.8 =  -0.065556 +j  -0.77588

ELEMENT = "Load.D844_846RC"
846           3          0.82498 /_   87.0 =   0.043115 +j   0.82385
846           0          0.82498 /_  -93.0 =  -0.043115 +j  -0.82385

ELEMENT = "Load.D846_848SB"
846           2          0.92081 /_ -150.2 =   -0.79903 +j  -0.45765
846           0          0.92081 /_   29.8 =    0.79903 +j   0.45765

ELEMENT = "Load.D846_848RB"
848           2          0.86673 /_ -151.9 =   -0.76476 +j  -0.40788
848           0          0.86673 /_   28.1 =    0.76476 +j   0.40788

ELEMENT = "Load.D802_806SB"
802           2           1.1127 /_ -146.6 =   -0.92932 +j  -0.61196
802           0           1.1127 /_   33.4 =    0.92932 +j   0.61196

ELEMENT = "Load.D802_806RB"
806           2           1.1138 /_ -146.7 =   -0.93071 +j   -0.6118
806           0           1.1138 /_   33.3 =    0.93071 +j    0.6118

ELEMENT = "Load.D802_806SC"
802           3          0.95058 /_   90.7 =  -0.011564 +j   0.95051
802           0          0.95058 /_  -89.3 =   0.011564 +j  -0.95051

ELEMENT = "Load.D802_806RC"
806           3          0.95154 /_   90.7 =  -0.010997 +j   0.95148
806           0          0.95154 /_  -89.3 =   0.010997 +j  -0.95148

ELEMENT = "Load.D808_810SB"
808           2          0.62585 /_ -148.2 =   -0.53196 +j  -0.32971
808           0          0.62585 /_   31.8 =    0.53196 +j   0.32971

ELEMENT = "Load.D808_810RB"
810           2          0.62583 /_ -148.2 =   -0.53193 +j  -0.32972
810           0          0.62583 /_   31.8 =    0.53193 +j   0.32972

ELEMENT = "Load.D818_820SA"
818           1           1.3553 /_  -29.0 =     1.1855 +j   -0.6567
818           0           1.3553 /_  151.0 =    -1.1855 +j    0.6567

ELEMENT = "Load.D818_820RA"
820           1           1.3242 /_  -29.0 =     1.1577 +j  -0.64281
820           0           1.3242 /_  151.0 =    -1.1577 +j   0.64281

ELEMENT = "Load.D820_822SA"
820           1           5.2807 /_  -29.9 =     4.5786 +j   -2.6311
820           0           5.2807 /_  150.1 =    -4.5786 +j    2.6311

ELEMENT = "Load.D820_822RA"
822           1           5.2967 /_  -29.9 =     4.5922 +j   -2.6393
822           0           5.2967 /_  150.1 =    -4.5922 +j    2.6393

ELEMENT = "Load.D816_824SB"
816           2          0.10814 /_ -114.3 =  -0.044446 +j  -0.09858
816           3          0.10814 /_   65.7 =   0.044446 +j   0.09858

ELEMENT = "Load.D816_824RB"
824           2          0.10814 /_ -114.5 =  -0.044842 +j   -0.0984
824           3          0.10814 /_   65.5 =   0.044842 +j    0.0984

ELEMENT = "Load.D828_830SA"
828           1          0.26072 /_  -25.7 =    0.23484 +j  -0.11325
828           0          0.26072 /_  154.3 =   -0.23484 +j   0.11325

ELEMENT = "Load.D828_830RA"
830           1          0.26554 /_  -26.0 =    0.23863 +j  -0.11647
830           0          0.26554 /_  154.0 =   -0.23863 +j   0.11647

ELEMENT = "Load.D854_856SB"
854           2          0.15615 /_ -150.1 =   -0.13536 +j -0.077857
854           0          0.15615 /_   29.9 =    0.13536 +j  0.077857

ELEMENT = "Load.D854_856RB"
856           2          0.15617 /_ -150.1 =   -0.13538 +j -0.077848
856           0          0.15617 /_   29.9 =    0.13538 +j  0.077848

ELEMENT = "Load.D832_858SA"
832           1         0.092681 /_  -26.5 =   0.082914 +j -0.041414
832           0         0.092681 /_  153.5 =  -0.082914 +j  0.041414

ELEMENT = "Load.D832_858RA"
858           1         0.092475 /_  -26.6 =   0.082687 +j -0.041406
858           0         0.092475 /_  153.4 =  -0.082687 +j  0.041406

ELEMENT = "Load.D832_858SB"
832           2         0.027063 /_ -150.9 =  -0.023653 +j  -0.01315
832           0         0.027063 /_   29.1 =   0.023653 +j   0.01315

ELEMENT = "Load.D832_858RB"
858           2         0.027002 /_ -151.0 =  -0.023621 +j -0.013083
858           0         0.027002 /_   29.0 =   0.023621 +j  0.013083

ELEMENT = "Load.D832_858SC"
832           3         0.081187 /_   89.6 =  0.00061115 +j  0.081185
832           0         0.081187 /_  -90.4 =  -0.00061115 +j -0.081185

ELEMENT = "Load.D832_858RC"
858           3         0.081015 /_   89.5 =  0.00076236 +j  0.081012
858           0         0.081015 /_  -90.5 =  -0.00076236 +j -0.081012

ELEMENT = "Load.D824_826SB"
824           2           1.5554 /_ -149.6 =    -1.3416 +j  -0.78696
824           0           1.5554 /_   30.4 =     1.3416 +j   0.78696

ELEMENT = "Load.D824_826RB"
826           2           1.5554 /_ -149.6 =    -1.3416 +j  -0.78696
826           0           1.5554 /_   30.4 =     1.3416 +j   0.78696

ELEMENT = "Load.D824_828SC"
824           3          0.15327 /_   91.1 =  -0.0028628 +j   0.15324
824           0          0.15327 /_  -88.9 =  0.0028628 +j  -0.15324

ELEMENT = "Load.D824_828RC"
828           3          0.15338 /_   91.0 =  -0.0028091 +j   0.15335
828           0          0.15338 /_  -89.0 =  0.0028091 +j  -0.15335

ELEMENT = "Load.D834_860SA"
834           1          0.37625 /_   -0.7 =    0.37623 +j -0.0044146
834           2          0.37625 /_  179.3 =   -0.37623 +j 0.0044146

ELEMENT = "Load.D834_860RA"
860           1          0.37611 /_   -0.7 =    0.37608 +j -0.0043884
860           2          0.37611 /_  179.3 =   -0.37608 +j 0.0043884

ELEMENT = "Load.D834_860SB"
834           2          0.46545 /_ -120.9 =   -0.23898 +j  -0.39941
834           3          0.46545 /_   59.1 =    0.23898 +j   0.39941

ELEMENT = "Load.D834_860RB"
860           2          0.46527 /_ -120.9 =   -0.23889 +j  -0.39926
860           3          0.46527 /_   59.1 =    0.23889 +j   0.39926

ELEMENT = "Load.D834_860SC"
834           3           2.5649 /_  119.7 =    -1.2722 +j    2.2271
834           1           2.5649 /_  -60.3 =     1.2722 +j   -2.2271

ELEMENT = "Load.D834_860RC"
860           3           2.5637 /_  119.7 =    -1.2717 +j    2.2261
860           1           2.5637 /_  -60.3 =     1.2717 +j   -2.2261

ELEMENT = "Load.D860_836SA"
860           1          0.64325 /_   -0.7 =    0.64321 +j -0.0075053
860           2          0.64325 /_  179.3 =   -0.64321 +j 0.0075053

ELEMENT = "Load.D860_836RA"
836           1          0.64342 /_   -0.7 =    0.64337 +j -0.0075284
836           2          0.64342 /_  179.3 =   -0.64337 +j 0.0075284

ELEMENT = "Load.D860_836SB"
860           2          0.22599 /_ -125.3 =   -0.13056 +j  -0.18446
860           3          0.22599 /_   54.7 =    0.13056 +j   0.18446

ELEMENT = "Load.D860_836RB"
836           2          0.22605 /_ -125.3 =   -0.13059 +j  -0.18451
836           3          0.22605 /_   54.7 =    0.13059 +j   0.18451

ELEMENT = "Load.D860_836SC"
860           3          0.91709 /_  118.7 =    -0.4398 +j   0.80476
860           1          0.91709 /_  -61.3 =     0.4398 +j  -0.80476

ELEMENT = "Load.D860_836RC"
836           3          0.91726 /_  118.7 =   -0.43988 +j    0.8049
836           1          0.91726 /_  -61.3 =    0.43988 +j   -0.8049

ELEMENT = "Load.D836_840SA"
836           1          0.40411 /_   -0.7 =    0.40408 +j -0.0047284
836           2          0.40411 /_  179.3 =   -0.40408 +j 0.0047284

ELEMENT = "Load.D836_840RA"
840           1          0.40411 /_   -0.7 =    0.40408 +j -0.0047288
840           2          0.40411 /_  179.3 =   -0.40408 +j 0.0047288

ELEMENT = "Load.D836_840SB"
836           2          0.49391 /_ -120.9 =   -0.25357 +j  -0.42385
836           3          0.49391 /_   59.1 =    0.25357 +j   0.42385

ELEMENT = "Load.D836_840RB"
840           2          0.49391 /_ -120.9 =   -0.25357 +j  -0.42385
840           3          0.49391 /_   59.1 =    0.25357 +j   0.42385

ELEMENT = "Load.D858_834SB"
858           2          0.32851 /_ -122.3 =   -0.17547 +j  -0.27772
858           3          0.32851 /_   57.7 =    0.17547 +j   0.27772

ELEMENT = "Load.D858_834RB"
834           2          0.32931 /_ -122.4 =   -0.17645 +j  -0.27805
834           3          0.32931 /_   57.6 =    0.17645 +j   0.27805

ELEMENT = "Load.D858_834SC"
858           3          0.28466 /_  118.1 =   -0.13409 +j    0.2511
858           1          0.28466 /_  -61.9 =    0.13409 +j   -0.2511

ELEMENT = "Load.D858_834RC"
834           3          0.28547 /_  118.0 =   -0.13402 +j   0.25205
834           1          0.28547 /_  -62.0 =    0.13402 +j  -0.25205

ELEMENT = "Load.D862_838SB"
862           2           1.0489 /_ -151.1 =   -0.91852 +j  -0.50644
862           0           1.0489 /_   28.9 =    0.91852 +j   0.50644

ELEMENT = "Load.D862_838RB"
838           2            1.049 /_ -151.1 =   -0.91867 +j  -0.50649
838           0            1.049 /_   28.9 =    0.91867 +j   0.50649

