34Bus/Test runs/20_Linear Loads/ieee34-1_EXP_POWERS.CSV
Element, Terminal, P(kW), Q(kvar),  P_Normal, Q_Normal, P_Emergency, Q_Emergency
"Transformer.SUBXF"     ,   1,      2103.6,       291.2,         0.0,         0.0,         0.0,         0.0
"Transformer.SUBXF"     ,   2,     -2103.6,      -291.1
"Line.L1"               ,   1,      2103.6,       291.1,         0.0,         0.0,         0.0,         0.0
"Line.L1"               ,   2,     -2100.0,      -290.4
"Line.L2"               ,   1,      2072.5,       275.9,         0.0,         0.0,         0.0,         0.0
"Line.L2"               ,   2,     -2070.1,      -275.5
"Line.L3"               ,   1,      2042.6,       261.0,         0.0,         0.0,         0.0,         0.0
"Line.L3"               ,   2,     -1998.7,      -253.1
"Line.L4"               ,   1,         8.2,         3.2,         0.0,         0.0,         0.0,         0.0
"Line.L4"               ,   2,        -8.2,        -4.2
"Line.L5"               ,   1,      1982.3,       245.7,         0.0,         0.0,         0.0,         0.0
"Line.L5"               ,   2,     -1931.9,      -235.6
"Line.L6"               ,   1,      1931.9,       235.6,         0.0,         0.0,         0.0,         0.0
"Line.L6"               ,   2,     -1891.8,      -226.4
"Line.L7"               ,   1,      1891.5,       225.7,         0.0,         0.0,         0.0,         0.0
"Line.L7"               ,   2,     -1891.5,      -225.7
"Line.L8"               ,   1,       173.8,        78.8,         0.0,         0.0,         0.0,         0.0
"Line.L8"               ,   2,      -173.6,       -79.0
"Line.L9"               ,   1,      1714.6,       145.9,         0.0,         0.0,         0.0,         0.0
"Line.L9"               ,   2,     -1699.7,      -145.7
"Line.L10"              ,   1,       155.8,        70.0,         0.0,         0.0,         0.0,         0.0
"Line.L10"              ,   2,      -152.3,       -76.4
"Line.L11"              ,   1,        67.7,        32.8,         0.0,         0.0,         0.0,         0.0
"Line.L11"              ,   2,       -67.5,       -35.0
"Line.L12"              ,   1,        20.3,         9.6,         0.0,         0.0,         0.0,         0.0
"Line.L12"              ,   2,       -20.3,       -10.1
"Line.L13"              ,   1,      1654.6,       124.0,         0.0,         0.0,         0.0,         0.0
"Line.L13"              ,   2,     -1653.4,      -124.0
"Line.L14"              ,   1,      1647.9,       121.5,         0.0,         0.0,         0.0,         0.0
"Line.L14"              ,   2,     -1619.8,      -121.8
"Line.L15"              ,   1,      1571.6,       100.4,         0.0,         0.0,         0.0,         0.0
"Line.L15"              ,   2,     -1570.9,      -100.4
"Line.L16"              ,   1,      1019.8,      -141.1,         0.0,         0.0,         0.0,         0.0
"Line.L16"              ,   2,     -1017.3,       138.7
"Line.L17"              ,   1,       319.8,       186.7,         0.0,         0.0,         0.0,         0.0
"Line.L17"              ,   2,      -319.7,      -188.2
"Line.L18"              ,   1,       578.8,      -381.1,         0.0,         0.0,         0.0,         0.0
"Line.L18"              ,   2,      -578.7,       380.9
"Line.L19"              ,   1,        50.0,        32.5,         0.0,         0.0,         0.0,         0.0
"Line.L19"              ,   2,       -50.0,       -33.1
"Line.L20"              ,   1,        28.0,        12.9,         0.0,         0.0,         0.0,         0.0
"Line.L20"              ,   2,       -28.0,       -13.1
"Line.L21"              ,   1,       573.8,      -383.6,         0.0,         0.0,         0.0,         0.0
"Line.L21"              ,   2,      -573.5,       382.8
"Line.L22"              ,   1,       107.6,      -414.2,         0.0,         0.0,         0.0,         0.0
"Line.L22"              ,   2,      -107.2,       411.6
"Line.L23"              ,   1,        71.5,      -429.9,         0.0,         0.0,         0.0,         0.0
"Line.L23"              ,   2,       -71.5,       429.5
"Line.L24"              ,   1,      1891.5,       225.7,         0.0,         0.0,         0.0,         0.0
"Line.L24"              ,   2,     -1890.9,      -225.7
"Line.L25"              ,   1,      1519.3,       102.7,         0.0,         0.0,         0.0,         0.0
"Line.L25"              ,   2,     -1519.3,      -102.7
"Transformer.XFM1"      ,   1,       496.8,       242.5,         0.0,         0.0,         0.0,         0.0
"Transformer.XFM1"      ,   2,      -486.2,      -219.7
"Line.L26"              ,   1,         2.0,        -2.8,         0.0,         0.0,         0.0,         0.0
"Line.L26"              ,   2,        -2.0,        -1.0
"Line.L27"              ,   1,      1566.9,       102.2,         0.0,         0.0,         0.0,         0.0
"Line.L27"              ,   2,     -1519.5,      -103.1
"Line.L28"              ,   1,         1.0,         0.3,         0.0,         0.0,         0.0,         0.0
"Line.L28"              ,   2,        -1.0,        -0.5
"Line.L29"              ,   1,       996.3,      -149.3,         0.0,         0.0,         0.0,         0.0
"Line.L29"              ,   2,      -993.5,       146.4
"Line.L30"              ,   1,       139.9,        75.3,         0.0,         0.0,         0.0,         0.0
"Line.L30"              ,   2,      -139.9,       -77.3
"Line.L31"              ,   1,        14.0,         6.1,         0.0,         0.0,         0.0,         0.0
"Line.L31"              ,   2,       -14.0,        -7.0
"Line.L32"              ,   1,       486.2,       219.7,         0.0,         0.0,         0.0,         0.0
"Line.L32"              ,   2,      -450.0,      -193.0
"Capacitor.C844"        ,   1,         0.0,      -324.9,         0.0,         0.0,         0.0,         0.0
"Capacitor.C844"        ,   2,         0.0,         0.0
"Capacitor.C848"        ,   1,         0.0,      -487.5,         0.0,         0.0,         0.0,         0.0
"Capacitor.C848"        ,   2,         0.0,         0.0
"Transformer.REG1A"     ,   1,       711.9,       151.7,         0.0,         0.0,         0.0,         0.0
"Transformer.REG1A"     ,   2,      -711.8,      -151.3
"Transformer.REG1B"     ,   1,       602.2,        58.4,         0.0,         0.0,         0.0,         0.0
"Transformer.REG1B"     ,   2,      -602.1,       -58.2
"Transformer.REG1C"     ,   1,       577.7,        16.4,         0.0,         0.0,         0.0,         0.0
"Transformer.REG1C"     ,   2,      -577.6,       -16.2
"Transformer.REG2A"     ,   1,       485.9,        62.5,         0.0,         0.0,         0.0,         0.0
"Transformer.REG2A"     ,   2,      -485.9,       -62.3
"Transformer.REG2B"     ,   1,       511.6,        34.7,         0.0,         0.0,         0.0,         0.0
"Transformer.REG2B"     ,   2,      -511.5,       -34.5
"Transformer.REG2C"     ,   1,       522.0,         6.0,         0.0,         0.0,         0.0,         0.0
"Transformer.REG2C"     ,   2,      -521.9,        -5.9
"Load.S860"             ,   1,        60.0,        52.0
"Load.S840"             ,   1,        29.2,        22.7
"Load.S844"             ,   1,       438.5,       341.1
"Load.S848"             ,   1,        60.0,        52.0
"Load.S830A"            ,   1,        10.0,         5.0
"Load.S830B"            ,   1,         9.9,         4.9
"Load.S830C"            ,   1,        24.8,         9.9
"Load.S890"             ,   1,       450.0,       193.0
"Load.D858_864SB"       ,   1,         1.1,         0.5
"Load.D858_864RB"       ,   1,         1.0,         0.5
"Load.D858_834SA"       ,   1,         2.2,         1.1
"Load.D858_834RA"       ,   1,         2.0,         1.1
"Load.D842_844SA"       ,   1,         4.9,         2.7
"Load.D842_844RA"       ,   1,         4.9,         2.7
"Load.D844_846SB"       ,   1,        12.5,         6.5
"Load.D844_846RB"       ,   1,        12.5,         6.5
"Load.D844_846SC"       ,   1,        10.0,         5.9
"Load.D844_846RC"       ,   1,        10.8,         5.9
"Load.D846_848SB"       ,   1,        12.4,         5.9
"Load.D846_848RB"       ,   1,        11.5,         5.9
"Load.D802_806SB"       ,   1,        15.0,         7.5
"Load.D802_806RB"       ,   1,        15.0,         7.5
"Load.D802_806SC"       ,   1,        12.5,         7.0
"Load.D802_806RC"       ,   1,        12.5,         7.0
"Load.D808_810SB"       ,   1,         8.2,         4.2
"Load.D808_810RB"       ,   1,         8.2,         4.2
"Load.D818_820SA"       ,   1,        17.9,         8.9
"Load.D818_820RA"       ,   1,        17.1,         8.5
"Load.D820_822SA"       ,   1,        67.5,        35.0
"Load.D820_822RA"       ,   1,        67.5,        35.0
"Load.D816_824SB"       ,   1,         2.6,         1.0
"Load.D816_824RB"       ,   1,         2.5,         1.0
"Load.D828_830SA"       ,   1,         3.5,         1.5
"Load.D828_830RA"       ,   1,         3.5,         1.5
"Load.D854_856SB"       ,   1,         2.0,         1.0
"Load.D854_856RB"       ,   1,         2.0,         1.0
"Load.D832_858SA"       ,   1,         1.3,         0.6
"Load.D832_858RA"       ,   1,         1.3,         0.5
"Load.D832_858SB"       ,   1,         0.4,         0.2
"Load.D832_858RB"       ,   1,         0.4,         0.2
"Load.D832_858SC"       ,   1,         1.1,         0.5
"Load.D832_858RC"       ,   1,         1.1,         0.5
"Load.D824_826SB"       ,   1,        20.3,        10.1
"Load.D824_826RB"       ,   1,        20.3,        10.1
"Load.D824_828SC"       ,   1,         2.0,         1.0
"Load.D824_828RC"       ,   1,         2.0,         1.0
"Load.D834_860SA"       ,   1,         8.8,         4.4
"Load.D834_860RA"       ,   1,         8.8,         4.4
"Load.D834_860SB"       ,   1,        10.7,         5.4
"Load.D834_860RB"       ,   1,        10.7,         5.4
"Load.D834_860SC"       ,   1,        59.3,        29.7
"Load.D834_860RC"       ,   1,        59.3,        29.6
"Load.D860_836SA"       ,   1,        15.0,         7.5
"Load.D860_836RA"       ,   1,        15.0,         7.5
"Load.D860_836SB"       ,   1,         5.0,         3.0
"Load.D860_836RB"       ,   1,         5.0,         3.0
"Load.D860_836SC"       ,   1,        21.0,        11.0
"Load.D860_836RC"       ,   1,        21.0,        11.0
"Load.D836_840SA"       ,   1,         9.4,         4.7
"Load.D836_840RA"       ,   1,         9.4,         4.7
"Load.D836_840SB"       ,   1,        11.4,         5.7
"Load.D836_840RB"       ,   1,        11.4,         5.7
"Load.D858_834SB"       ,   1,         7.5,         4.0
"Load.D858_834RB"       ,   1,         7.5,         4.0
"Load.D858_834SC"       ,   1,         6.5,         3.5
"Load.D858_834RC"       ,   1,         6.5,         3.5
"Load.D862_838SB"       ,   1,        14.0,         7.0
"Load.D862_838RB"       ,   1,        14.0,         7.0
